<?xml version="1.0" encoding="UTF-8"?>

<!-- generated on 2026-06-10 21:46:02.745985 by Eclipse SUMO randomTrips.py v1_27_0+0000-e238ea04b71
<configuration>
    <net-file value="C:\Users\ilias\Desktop\TGCN\simulation\sumo_files\casablanca.net.xml"/>
    <route-file value="C:\Users\ilias\Desktop\TGCN\simulation\sumo_files\casablanca.rou.xml"/>
    <trip-attributes value="departLane=&quot;best&quot; departSpeed=&quot;max&quot; departPos=&quot;random&quot;"/>
    <period value="1.44"/>
</configuration>
-->

<!-- generated on 2026-06-10T21:46:02.123651+00:00 by Eclipse SUMO duarouter 1.27.0
<duarouterConfiguration xmlns:xsi="http://www.w3.org/2001/XMLSchema-instance" xsi:noNamespaceSchemaLocation="http://sumo.dlr.de/xsd/duarouterConfiguration.xsd">

    <input>
        <net-file value="C:\Users\ilias\Desktop\TGCN\simulation\sumo_files\casablanca.net.xml"/>
        <route-files value="trips.trips.xml"/>
    </input>

    <output>
        <output-file value="C:\Users\ilias\Desktop\TGCN\simulation\sumo_files\casablanca.rou.xml"/>
        <alternatives-output value="NUL"/>
    </output>

    <processing>
        <routing-threads value="4"/>
    </processing>

    <time>
        <begin value="0"/>
        <end value="3600.0"/>
    </time>

    <report>
        <no-warnings value="true"/>
        <ignore-errors value="true"/>
        <no-step-log value="true"/>
    </report>

</duarouterConfiguration>
-->

<routes xmlns:xsi="http://www.w3.org/2001/XMLSchema-instance" xsi:noNamespaceSchemaLocation="http://sumo.dlr.de/xsd/routes_file.xsd">
    <vehicle id="0" depart="0.00" departLane="best" departPos="random" departSpeed="max">
        <route edges="422280758 422535912 422535912-AddedOffRampEdge 1318325395 421651458 208352437 517164892 127849293 421418729 1117516194 421418738 421881777#0 186242121#0 186242121#1 -579349392 -579349407 592488862 1424655876 1424655877 422539939 186242127 583812536 -583812536 -186242127"/>
    </vehicle>
    <vehicle id="1" depart="1.44" departLane="best" departPos="random" departSpeed="max">
        <route edges="163871531 550731187 32511973 32511973-AddedOffRampEdge 606139307#0 422855899#0 215499804#0 422535927 421651407#0 421651407#1 421651407#2 127845734#0 127845734#1-AddedOnRampEdge 127845734#1 422535912 422535912-AddedOffRampEdge 1318325395 421651458 208352437 517164892 127849293 421418729 1117516194 421418738 421881777#0 186242121#0 186242121#1 -579349392 -579349407 592488862 1424655876 1424655877 1424655874 1424655878"/>
    </vehicle>
    <vehicle id="2" depart="2.88" departLane="best" departPos="random" departSpeed="max">
        <route edges="589964064 32511970#0 1316020514#0 1126184801 421387135-AddedOnRampEdge 421387135 156830663#1 36862123-AddedOnRampEdge 36862123 163871518 32511963 741749028#0 741749028#0-AddedOffRampEdge 741749028#1 36862455#0 1289252994#1 215499805#2-AddedOnRampEdge 215499805#2 -421854343#1"/>
    </vehicle>
    <vehicle id="3" depart="4.32" departLane="best" departPos="random" departSpeed="max">
        <route edges="36862101 163871526 36862454 36863596 156830646 1316020515 421387203 -174115271#0 30135172#1 -36861401 1319808592 1320388071#0 1320388071#1 1320388071#2 1320388070#0 421403862#4 -36854821#1 -36854821#0 36854535#2 -575598831 729019795 575598829#4 575598829#5 575598829#6 745068465 -214858651"/>
    </vehicle>
    <vehicle id="4" depart="5.76" departLane="best" departPos="random" departSpeed="max">
        <route edges="1320388073#1 1319808593#1 1319808593#2 1320388069 36861401 30135172#2 174115271#0 1316020514#0 1126184801 421387135-AddedOnRampEdge 421387135 163871514 422535912 422535912-AddedOffRampEdge 1371069878 36863671 421651453#1 853292343#0 853292343#0-AddedOffRampEdge 853292343#1 157308226 421403916 421403914 421859138 421859139#0 420357960 420357952#0 420357975"/>
    </vehicle>
    <vehicle id="5" depart="7.20" departLane="best" departPos="random" departSpeed="max">
        <route edges="-214858651 1457934542 745068466 575598829#2 729019794 575598831 36854535#0 36854535#1 36854821#0 36854821#1 583836340#0 1320388068#1 1319808593#0 1319808593#1 1319808593#2"/>
    </vehicle>
    <vehicle id="6" depart="8.64" departLane="best" departPos="random" departSpeed="max">
        <route edges="422488758 156830631#0 36862455#1 215499804#0 422535927 421651407#0 421651407#1 421651407#2 127845734#0 127845734#1-AddedOnRampEdge 127845734#1 422535912 422535912-AddedOffRampEdge 1318325395 421651458 208352437 517164892 127849293 421418729 1117516194 421418738"/>
    </vehicle>
    <vehicle id="7" depart="10.08" departLane="best" departPos="random" departSpeed="max">
        <route edges="1371069878 36863671 421651453#1 853292343#0 853292343#0-AddedOffRampEdge 853292343#1 157308226 421403916 421403914 421859138 421859139#0 421859139#1 421859139#2 127846385#0 127846385#1-AddedOnRampEdge 127846385#1 853292342 208352437 517164892 127849293 421418729 1117516194 421418738 36863225#0 421651433#0 421651433#1"/>
    </vehicle>
    <vehicle id="8" depart="11.52" departLane="best" departPos="random" departSpeed="max">
        <route edges="572168107 727827300 421569494 572160831 421569486 1111195681 1111195680 397264721 407163292 518347573#0 518347573#1 518347573#2 518367982#0 586989172 586984743 586984746 518338908#0 518338908#0-AddedOffRampEdge 518338908#2 -36860979 -476302646 -174115271#0 30135172#1 -36861401 1319808592 1320388071#0 1320388071#1 1320388071#2 1320388070#0 421403862#4 -36854821#1 -36854835#1 -36854835#0 583985886 583985888 36854688#0 36854688#1 231855907#0 231855907#1-AddedOnRampEdge 231855907#1 202733857 583985890#1 422708236#1 -1371385737 -853735143#1 -1371385741"/>
    </vehicle>
    <vehicle id="9" depart="12.96" departLane="best" departPos="random" departSpeed="max">
        <route edges="550649033-AddedOffRampEdge 422488789#0 422488789#1 511659179 36866409 590847770 -392693689 428425324 515427176#0 515427524#0 163871513 422535969 723290325 723290329 730262955 730262956 422535950 422280758 422535912 422535912-AddedOffRampEdge"/>
    </vehicle>
    <vehicle id="10" depart="14.40" departLane="best" departPos="random" departSpeed="max">
        <route edges="215453379 732967275#2 732967276 518367981#0 518367981#1-AddedOnRampEdge 518367981#1 518367981#2 572168107 727827300 174059066 572168109 1319344101#0 1319344101#1 1111195679 421651418#0 421651418#1-AddedOnRampEdge 421651418#1 -420358017 1117235907 1117235905 1117235906 1117235909"/>
    </vehicle>
    <vehicle id="11" depart="15.84" departLane="best" departPos="random" departSpeed="max">
        <route edges="729012914#0 -1457327189 1457327190#2 -34849593 36854535#1 36854821#0 36854821#1 583794928 187372344 579476493#0 579476493#1 583266088#2 583266088#3 421387191#3 422314207#0 586984744 518338909#0 518367981#0 518367981#1-AddedOnRampEdge 518367981#1 518347573#1 215453379"/>
    </vehicle>
    <vehicle id="12" depart="17.28" departLane="best" departPos="random" departSpeed="max">
        <route edges="-422517494 422517494 511658931 36866409 590847770 -392693689 427239624 590879633 550649025 421651478 186242109 516453563 186242121#0 -167629108 -38556519 214724761#1 392693696#0 421403862#0 421403862#0-AddedOffRampEdge 421403862#2 1320388068#1 1319808593#0 1319808593#1 1319808593#2 1320388069 36861401 30135172#2 174115271#0 476302646 36860979 -36860979 -476302646"/>
    </vehicle>
    <vehicle id="13" depart="18.72" departLane="best" departPos="random" departSpeed="max">
        <route edges="583606361#1 36854688#1 583606362 174115118 575598858 583985886 231855910#0 231855910#1 285137654 187372344 579476493#0 579476493#1 583266088#2 583266088#3 421387191#3 422314207#0 586984744 518338909#0 518367981#0 518367981#1-AddedOnRampEdge 518367981#1 518367981#2 572168107 727827300 421569494 572160831 421569486 1111195681 407158852#0 407158852#1 -421651452 719551333#0 719551335 421651452"/>
    </vehicle>
    <vehicle id="14" depart="20.16" departLane="best" departPos="random" departSpeed="max">
        <route edges="421418698 1117516194 421418844 421418850 421418753 421418826 421418720#0 421418720#1-AddedOnRampEdge 421418720#1 421418720#1-AddedOffRampEdge 1318191910 421651434 421403887 421651453#0 421651453#1 853292343#0 853292343#0-AddedOffRampEdge 853292343#1 157308226 421403916 421403914 421859138 421859139#0 420357960 -38704375 731152429"/>
    </vehicle>
    <vehicle id="15" depart="21.60" departLane="best" departPos="random" departSpeed="max">
        <route edges="315894504 315894488 1318092886#0 421854343#0 422488758 156830631#0 36862455#1 215499804#0 422535927 421651407#0 421651407#1 421651407#2 127845734#0 127845734#1-AddedOnRampEdge 127845734#1 422535912 422535912-AddedOffRampEdge 1318325395 421651458 208352437 517164892 127849293 421418729 1117516194 421418738 421881777#0 186242121#0 186242121#1 -579349392 -579349407 592488862 1424655876 1424655877 381025455#1 381025455#2-AddedOnRampEdge 381025455#2 421569491#2 421569491#2-AddedOffRampEdge"/>
    </vehicle>
    <vehicle id="16" depart="23.04" departLane="best" departPos="random" departSpeed="max">
        <route edges="579856803 1111870594 1111904645 579856805-AddedOnRampEdge 579856805 421572456 36863792 421881775#0 421881775#1-AddedOnRampEdge 421881775#1 421881775#1-AddedOffRampEdge 1111870612 421418850 421418753 421418826 421418720#0 421418720#1-AddedOnRampEdge 421418720#1 421418720#1-AddedOffRampEdge 1318191910 421651434 421403887 421651453#0 421651453#1 853292343#0 853292343#0-AddedOffRampEdge 853292343#1 157308226 421403916 421403914 157186438#0 157186438#1-AddedOnRampEdge 157186438#1 157186438#1-AddedOffRampEdge 588736874 421651418#1-AddedOnRampEdge 421651418#1 421403882 421854342 421854313#0 421854313#0-AddedOffRampEdge 421854313#2"/>
    </vehicle>
    <vehicle id="17" depart="24.48" departLane="best" departPos="random" departSpeed="max">
        <route edges="583812541 422488788 36866402#0 550649032#0 1112807673 550649033 550649033-AddedOffRampEdge 422488789#0 422488789#1 511659179 36866409 590847770 -392693689 428425324 515427176#0 515427524#0 163871513 422535969 723290325 723290329 730262955 730262956 422535950 422280758 36862652 36862123-AddedOnRampEdge 36862123 163871518 32511963 741749028#0 741749028#0-AddedOffRampEdge 728253142 174268773 421651413#0 421651413#1"/>
    </vehicle>
    <vehicle id="18" depart="25.92" departLane="best" departPos="random" departSpeed="max">
        <route edges="422539937#0 422539937#1-AddedOnRampEdge 422539937#1 422539937#1-AddedOffRampEdge 583812542 422488780#0 422488780#0-AddedOffRampEdge 422488780#1 422539939 186242127 583812536 -381025465#1 729012915#0 729012914#0 -1457327189 1457327190#2 -34849593 36854535#1 36854821#0 36854821#1 -36854821#1"/>
    </vehicle>
    <vehicle id="19" depart="27.36" departLane="best" departPos="random" departSpeed="max">
        <route edges="1424655878 1424655877 381025455#1 381025455#2-AddedOnRampEdge 381025455#2 301939877#0 186240964#0"/>
    </vehicle>
    <vehicle id="20" depart="28.80" departLane="best" departPos="random" departSpeed="max">
        <route edges="-421569509#2 36854377#2 422280717#2 583985892 422280730 36854263 36854317 1457934542"/>
    </vehicle>
    <vehicle id="21" depart="30.24" departLane="best" departPos="random" departSpeed="max">
        <route edges="-515427176#1 -38557144#1 -38557144#0 590879679 421651433#3-AddedOnRampEdge 421651433#3 422535942#0 163871513 422535864#1 422535864#1-AddedOffRampEdge 1111870614 421403887 421651453#0 421651453#1 853292343#0 853292343#0-AddedOffRampEdge 853292343#1 157308226 421403916 421403914 157186438#0 157186438#1-AddedOnRampEdge 157186438#1 157186438#1-AddedOffRampEdge 588736874 421651418#1-AddedOnRampEdge 421651418#1 421403850 421403921 174059072 174115037"/>
    </vehicle>
    <vehicle id="22" depart="31.68" departLane="best" departPos="random" departSpeed="max">
        <route edges="421881775#1-AddedOnRampEdge 421881775#1 421881775#1-AddedOffRampEdge 1111870612 421418850 421418753 421418826 421418720#0 421418720#1-AddedOnRampEdge 421418720#1 421418720#1-AddedOffRampEdge 1318191910 421651434 1111870615 36861897#0-AddedOnRampEdge 36861897#0 36862652 36862123-AddedOnRampEdge 36862123 163871518 32511963 741749028#0 741749028#0-AddedOffRampEdge 741749028#1 36862455#0 1289252994#1 215499805#2-AddedOnRampEdge 215499805#2 -421854343#1 1318092888 -315894488 315894495 1111195667 1111195668 1111195666 315894504 315894488"/>
    </vehicle>
    <vehicle id="23" depart="33.12" departLane="best" departPos="random" departSpeed="max">
        <route edges="301939875#0 -421569509#0 -381025465#1 729012915#0 729012914#0 -1457327189 1457327190#2 -34849593 36854535#1 36854821#0 36854821#1 583836340#0 1320388068#1 1319808593#0 1319808593#1 1320388072#0"/>
    </vehicle>
    <vehicle id="24" depart="34.56" departLane="best" departPos="random" departSpeed="max">
        <route edges="157308227#0 421403853 421403853-AddedOffRampEdge 589279302 1111195678 1111195675 1111195677 421651428#0 421651428#0-AddedOffRampEdge 421651428#1 572160831 421569486 1111195681 407158852#0 407158852#1 -421651452 719551333#0 719551335"/>
    </vehicle>
    <vehicle id="25" depart="36.00" departLane="best" departPos="random" departSpeed="max">
        <route edges="422488756 423499340 1111870594 1111904645 579856805-AddedOnRampEdge 579856805 421572456 36863792 421881775#0 421881775#1-AddedOnRampEdge 421881775#1 421881775#1-AddedOffRampEdge 1111870612 421418850 421418753 421418826 421418799 127849293 127901809 590284846 514402463 421418751 -423702932#1 732967273 518367981#0 518367981#1-AddedOnRampEdge 518367981#1 518367981#2 572168107 727827300 421569494 572160831 421569486 1111195681 407158852#0 407158852#1 -421651452 719551333#0 421651455"/>
    </vehicle>
    <vehicle id="26" depart="37.44" departLane="best" departPos="random" departSpeed="max">
        <route edges="1119338398#2 514402737 203821735 421418764#1 421387135-AddedOnRampEdge 421387135 156830663#1 36862123-AddedOnRampEdge 36862123 163871518 32511963 741749028#0 741749028#0-AddedOffRampEdge 741749028#1 36862455#0 36862455#1 422535887#0 606138754#1 422855906-AddedOnRampEdge 422855906 421391690#0 421391690#1 421391690#2 421391666 421391681 36864382 550731187 32511973"/>
    </vehicle>
    <vehicle id="27" depart="38.88" departLane="best" departPos="random" departSpeed="max">
        <route edges="745068465 745068466 575598829#2 729019794 575598831 36854535#0 36854535#1 36854821#0 36854821#1 583836340#0 583836340#3 1055797072 421881775#0 421881775#1-AddedOnRampEdge"/>
    </vehicle>
    <vehicle id="28" depart="40.32" departLane="best" departPos="random" departSpeed="max">
        <route edges="421569497 722128755 637304500 719551334 719551335 421651452 407158853 397264721 421569504 727827300 174059066 572168109 1319344101#0 421651449 421859139#0 421859139#1 421859139#2 127846385#0 127846385#1-AddedOnRampEdge 127846385#1 853292342 421403870 421651434 1111870615 36861897#0-AddedOnRampEdge 36861897#0 422280767 1030070949 730228873 723290327 422535864#1"/>
    </vehicle>
    <vehicle id="29" depart="41.76" departLane="best" departPos="random" departSpeed="max">
        <route edges="583606360 231855907#1-AddedOnRampEdge 231855907#1 202733857 583985890#1 422708236#1 4071848 -421572462#1 -583846252#1 36854281 422517489 422280717#1 422280717#2 583812532 -421569495 -583812536 -186242127 36866505#0 36866505#0-AddedOffRampEdge 36866505#1 1424655874 1424655878 -1424655882 420659189 38556521 579349392 -186242121#1 -186242121#0 -516453563 516453563"/>
    </vehicle>
    <vehicle id="30" depart="43.20" departLane="best" departPos="random" departSpeed="max">
        <route edges="1443919176 4071848 422517479 -1372244321 -234617359"/>
    </vehicle>
    <vehicle id="31" depart="44.64" departLane="best" departPos="random" departSpeed="max">
        <route edges="203821741 203821761#2-AddedOnRampEdge 203821761#2 421569516#0 157308206 1111195677 589279300 1319344101#0 421651449 421859139#0 421859139#1 421859139#2 127846385#0 127846385#1-AddedOnRampEdge 127846385#1 853292342 421403870 421651434 1111870615 36861897#0-AddedOnRampEdge 36861897#0 36862652 36862123-AddedOnRampEdge 36862123 163871518 32511963 741749028#0 741749028#0-AddedOffRampEdge 741749028#1 36862455#0 422535815#4 36862099 36862101 163871526"/>
    </vehicle>
    <vehicle id="32" depart="46.08" departLane="best" departPos="random" departSpeed="max">
        <route edges="1320388071#1 1320388073#1 1319808593#1 1319808593#2 1320388069 36861401 30135172#2 174115271#0 476302646 36860979 422314207#0 586984744 518338909#0 518367981#0 518367981#1-AddedOnRampEdge 518367981#1 518367981#2 572168107 727827300 421569494 572160831 421569486 1111195681 407158852#0 407158852#1 -421651452 719551333#0 719551332 -637304500 722128754 722128753 -417864124 417864124 722128756"/>
    </vehicle>
    <vehicle id="33" depart="47.52" departLane="best" departPos="random" departSpeed="max">
        <route edges="588736872 157186438#1-AddedOnRampEdge 157186438#1 157186438#1-AddedOffRampEdge 157186438#2 1111195679 1111195676 1111195678 589279301 421651411#0-AddedOnRampEdge 421651411#0 203821761#1"/>
    </vehicle>
    <vehicle id="34" depart="48.96" departLane="best" departPos="random" departSpeed="max">
        <route edges="422488780#1 422539939 186242127 583812536 -381025465#1 729012915#0 729012914#0 -1457327189 1457327190#2 -34849593 36854535#1 36854821#0"/>
    </vehicle>
    <vehicle id="35" depart="50.40" departLane="best" departPos="random" departSpeed="max">
        <route edges="592408156 1424655878 1424655877 381025455#1 381025455#2-AddedOnRampEdge 381025455#2 381025455#4"/>
    </vehicle>
    <vehicle id="36" depart="51.84" departLane="best" departPos="random" departSpeed="max">
        <route edges="157308222#0-AddedOnRampEdge 157308222#0 422535864#1 422535864#1-AddedOffRampEdge 1111870614 421403887 421651453#0 421651453#1 853292343#0 853292343#0-AddedOffRampEdge 853292343#1 157308226 421403916 421403914 157186438#0 157186438#1-AddedOnRampEdge 157186438#1 157186438#1-AddedOffRampEdge 157186438#2 1111195679 1111195676 1111195678 1111195675 1111195677 421651428#0 421651428#0-AddedOffRampEdge 589076629 157186425#1-AddedOnRampEdge"/>
    </vehicle>
    <vehicle id="37" depart="53.28" departLane="best" departPos="random" departSpeed="max">
        <route edges="421569512#0-AddedOffRampEdge 321737309 421854321#1 -421403882 421403853 421403853-AddedOffRampEdge 589279302 1111195678 1111195675 1111195677 589279300 1319344101#0 421651449 421859139#0 421859139#1 421859139#2 127846385#0 127846385#1-AddedOnRampEdge 127846385#1 853292342 421403870 1318191909 421651441-AddedOnRampEdge 421651441 422535904#1 422535904#2 163871513"/>
    </vehicle>
    <vehicle id="38" depart="54.72" departLane="best" departPos="random" departSpeed="max">
        <route edges="421651428#1 572160831 421569486 1111195681 1111195680 397264721 407163292 518347573#0 518347573#1 518347573#2 732967274 423702932#0 38556667 514402737 203821735 590284846"/>
    </vehicle>
    <vehicle id="39" depart="56.16" departLane="best" departPos="random" departSpeed="max">
        <route edges="36854377#2 422280717#2 583812532 -421569495 -583812536 -186242127 36866505#0 36866505#0-AddedOffRampEdge 36866505#1 1424655874"/>
    </vehicle>
    <vehicle id="40" depart="57.60" departLane="best" departPos="random" departSpeed="max">
        <route edges="853292343#1 157308226 157308225 1117235904 1117235909 1117235910 1117235908 420358017"/>
    </vehicle>
    <vehicle id="41" depart="59.04" departLane="best" departPos="random" departSpeed="max">
        <route edges="-422488758 422488758 156830631#0 422535815#4 36862099 36862101 163871526 36862454 36863596 156830646 1316020515 421387203 -174115271#0 30135172#1 -36861401 1319808592 1320388071#0 1320388071#1 1320388071#2 1320388070#0 421403862#4 -36854821#1 -36854835#1 -36854835#0"/>
    </vehicle>
    <vehicle id="42" depart="60.48" departLane="best" departPos="random" departSpeed="max">
        <route edges="-579349407 38556521 579349392 -186242121#1 -186242121#0 -516453563 36863792 421881775#0 421881775#1-AddedOnRampEdge 421881775#1 421881775#1-AddedOffRampEdge 1111870612 421418850 421418753 421418826 421418720#0 421418720#1-AddedOnRampEdge 421418720#1 421418720#1-AddedOffRampEdge 1318191910 421651434 421403887 421651453#0 421651453#1 853292343#0 853292343#0-AddedOffRampEdge 853292343#1 157308226 421403916 421403914 157186438#0 157186438#1-AddedOnRampEdge 157186438#1 157186438#1-AddedOffRampEdge 588736874 421651418#1-AddedOnRampEdge 421651418#1 421403882 421854342 421854338#1 421854338#2"/>
    </vehicle>
    <vehicle id="43" depart="61.92" departLane="best" departPos="random" departSpeed="max">
        <route edges="519061861 421391690#2 421391666 421391681 36864382 550731187 32511973 32511973-AddedOffRampEdge 606139307#0 422855899#0 215499804#0 422535927 421651407#0 421651407#1 421651407#2 127845734#0 127845734#1-AddedOnRampEdge 127845734#1 36862652 36862123-AddedOnRampEdge 36862123 163871518 32511963 741749028#0 741749028#0-AddedOffRampEdge 741749028#1 36862455#0"/>
    </vehicle>
    <vehicle id="44" depart="63.36" departLane="best" departPos="random" departSpeed="max">
        <route edges="-38704375 38704375 420357952#0 420357975 127846385#1-AddedOnRampEdge 127846385#1 853292342 421403870 421651434 1111870615 36861897#0-AddedOnRampEdge 36861897#0 36862652 36862123-AddedOnRampEdge 36862123 163871518 32511963 741749028#0 741749028#0-AddedOffRampEdge 741749028#1 36862455#0 36862455#1 422535887#0 606138754#1 422855906-AddedOnRampEdge 422855906 421391690#0 421391690#1 421391690#2 421391666 421391681 36864382 550731187 32511973 32511973-AddedOffRampEdge"/>
    </vehicle>
    <vehicle id="45" depart="64.80" departLane="best" departPos="random" departSpeed="max">
        <route edges="853292343#0-AddedOffRampEdge 853292343#1 157308226 421403916 421403914 421859138 421859139#0 421859139#1 421859139#2 127846385#0 127846385#1-AddedOnRampEdge 127846385#1 853292342 208352437 517164892 127849293 421418729 1117516194 421418738 1055797075#0 421403862#0"/>
    </vehicle>
    <vehicle id="46" depart="66.24" departLane="best" departPos="random" departSpeed="max">
        <route edges="731152429 1119338398#2-AddedOnRampEdge 1119338398#2 514402737 203821735 421418698 1117516194 421418738 421881777#0 186242121#0 186242121#1 -579349392 -579349407 592488862 1424655876 1424655877 422539939 186242127 583812536 421569495 583812530 422280730 36854280 422517489 422280717#1 422280717#2 583812532"/>
    </vehicle>
    <vehicle id="47" depart="67.68" departLane="best" departPos="random" departSpeed="max">
        <route edges="-157186416#2 518367981#2 572168107 727827300 174059066 572168109 1319344101#0 421651449 421859139#0 421859139#1 421859139#2 127846385#0 127846385#1-AddedOnRampEdge 127846385#1 853292342 421403870 421651434 1111870615 36861897#0-AddedOnRampEdge 36861897#0 36862652 36862123-AddedOnRampEdge 36862123 163871518 32511963 741749028#0 741749028#0-AddedOffRampEdge 741749028#1 36862455#0 36862455#1 422535887#0 422855899#0"/>
    </vehicle>
    <vehicle id="48" depart="69.12" departLane="best" departPos="random" departSpeed="max">
        <route edges="422535868#0 422535868#2 422535868#2-AddedOffRampEdge 727757482 421881775#1-AddedOnRampEdge 421881775#1 421881775#1-AddedOffRampEdge 1111870612 421418850 421418753 421418826 421418799 127849293 127901809 590284846 514402463 514402737 203821735 421418698"/>
    </vehicle>
    <vehicle id="49" depart="70.56" departLane="best" departPos="random" departSpeed="max">
        <route edges="157308227#0 421403853 421403853-AddedOffRampEdge 589279302 1111195678 1111195675 1111195677 589279300 1319344101#0 421651449 421859139#0 421859139#1 421859139#2 127846385#0 127846385#1-AddedOnRampEdge 127846385#1 853292342 208352437 517164892 127849293 421418729 1117516194 421418738 421881777#0"/>
    </vehicle>
    <vehicle id="50" depart="72.00" departLane="best" departPos="random" departSpeed="max">
        <route edges="-583266088#0 -36861393#1 1319808590 1320388073#0 1320388071#2 1320388070#0 583836340#3 -392693696#1 -214724761#1 -214724761#0 -38557156#1 592488862 1424655876 1424655877 422539937#0 422539937#1-AddedOnRampEdge 422539937#1 422539937#1-AddedOffRampEdge 583812542 583812541 422488788 36866402#0 36866383"/>
    </vehicle>
    <vehicle id="51" depart="73.44" departLane="best" departPos="random" departSpeed="max">
        <route edges="36866505#1 1424655874 1424655878 -1424655882 420659189 38556521 579349392 -186242121#1 -186242121#0 -516453563 36863792 421881775#0 421881775#1-AddedOnRampEdge 421881775#1 421881775#1-AddedOffRampEdge 1111870612 421418850 421418753 421418826 421418720#0 421418720#1-AddedOnRampEdge 421418720#1 421418720#1-AddedOffRampEdge 1318191910 421651434 421403887 421651453#0 421651453#1 853292343#0 853292343#0-AddedOffRampEdge 726114895"/>
    </vehicle>
    <vehicle id="52" depart="74.88" departLane="best" departPos="random" departSpeed="max">
        <route edges="588469644 722128755 637304500 719551334 719551335 421651452 407158853 397264721 421569504 727827300 174059066 572168109 1319344101#0 421651449 421859139#0 421859139#1 421859139#2 127846385#0 127846385#1-AddedOnRampEdge 127846385#1 853292342 421403870 1318191909 421651441-AddedOnRampEdge 421651441 422535904#1 422535904#2 163871513"/>
    </vehicle>
    <vehicle id="53" depart="76.32" departLane="best" departPos="random" departSpeed="max">
        <route edges="420357960 -38704375 731152429 1119338398#2-AddedOnRampEdge 1119338398#2 514402738 1316020515 421387203 1316020514#0"/>
    </vehicle>
    <vehicle id="54" depart="77.76" departLane="best" departPos="random" departSpeed="max">
        <route edges="186242121#1 -186242121#1 -186242121#0 -516453563 36863792 421881775#0 421881775#1-AddedOnRampEdge"/>
    </vehicle>
    <vehicle id="55" depart="79.20" departLane="best" departPos="random" departSpeed="max">
        <route edges="421693911#0 186240964#0 186240964#0-AddedOffRampEdge 421693922#1 422488756 423499340 1111870594 1111904645 579856805-AddedOnRampEdge 579856805 421572456 36863792 421881775#0 421881775#1-AddedOnRampEdge 421881775#1 421881775#1-AddedOffRampEdge 1111870612 421418850 421418753 421418826 421418720#0 421418720#1-AddedOnRampEdge 421418720#1 421418720#1-AddedOffRampEdge 1318191910 421651434 421403887 421651453#0 421651453#1 853292343#0 853292343#0-AddedOffRampEdge 853292343#1 157308226 157308225 1117235904 1117235909 1117235910 1117235908 1117235907"/>
    </vehicle>
    <vehicle id="56" depart="80.64" departLane="best" departPos="random" departSpeed="max">
        <route edges="515427524#0 422535868#0 422535868#2 422535868#2-AddedOffRampEdge 727757482 421881775#1-AddedOnRampEdge 421881775#1 421881775#1-AddedOffRampEdge 1111870612 421418850 421418753 421418826 421418720#0"/>
    </vehicle>
    <vehicle id="57" depart="82.08" departLane="best" departPos="random" departSpeed="max">
        <route edges="518347573#2 732967274 423702932#0 38556667 514402737 203821735 421418698 1117516194 421418738 1055797075#0 421403862#0 421403862#0-AddedOffRampEdge"/>
    </vehicle>
    <vehicle id="58" depart="83.52" departLane="best" departPos="random" departSpeed="max">
        <route edges="-1111904646#1 1111870699#0 1111870699#1 422488780#0 422488780#0-AddedOffRampEdge 422488780#1 422539939 186242127 583812536 421569495 583812530 422280730 36854263 36854317 1457934542 745068466 575598829#2 575598829#3 575598829#4 729019791 36854710#0 36854710#1 575598858 583985886 231855910#0 231855910#1 285137654 204174454"/>
    </vehicle>
    <vehicle id="59" depart="84.96" departLane="best" departPos="random" departSpeed="max">
        <route edges="-186242121#1 -186242121#0 -516453563 36863792 421881775#0 421881775#1-AddedOnRampEdge 421881775#1 421881775#1-AddedOffRampEdge 1111870612 421418850 421418753 421418826 421418799 127849293 127901809 590284846 514402463 421418751 -423702932#1 732967273 518367981#0 518367981#1-AddedOnRampEdge 518367981#1 518367981#2 572168107 727827300 421569494 572160831 421569486 1111195681 407158852#0 407158852#1 -421651452 719551333#0 719551332 -637304500 722128754 637304502"/>
    </vehicle>
    <vehicle id="60" depart="86.40" departLane="best" departPos="random" departSpeed="max">
        <route edges="588736874 421651418#1-AddedOnRampEdge 421651418#1 421403853 421403853-AddedOffRampEdge 589279302 1111195678 1111195675 1111195677 421651428#0 421651428#0-AddedOffRampEdge 421651428#1 572160831 421569486 1111195681 1111195680 397264721 407163292 518347573#0 518347573#1 518347573#2 518367982#0 586989172 586984743 586984746 518338908#0 518338908#0-AddedOffRampEdge 518338908#2 422314195 422314203#1 -583266088#3 -583266088#2 -583266088#0 579476493#1"/>
    </vehicle>
    <vehicle id="61" depart="87.84" departLane="best" departPos="random" departSpeed="max">
        <route edges="202733845#0 202733845#0-AddedOffRampEdge 584106305 -36854710#0 729019792 575598829#6 745068465 -214858651 -583846252#1 36854281 422517489 422280717#1 422280717#2 583812532 -421569495 -381025465#1"/>
    </vehicle>
    <vehicle id="62" depart="89.28" departLane="best" departPos="random" departSpeed="max">
        <route edges="588736874 421651418#1-AddedOnRampEdge 421651418#1 -420358017 1117235907 1117235905 1117235906 -1117235904 420358014 421403914 421859138 421859139#0 421859139#1 421859139#2 127846385#0 127846385#1-AddedOnRampEdge 127846385#1 853292342 421403870 421651434 1111870615 36861897#0-AddedOnRampEdge 36861897#0 36862652 36862123-AddedOnRampEdge 36862123 163871518 32511963 741749028#0 741749028#0-AddedOffRampEdge 741749028#1 36862455#0 36862455#1 422535887#0 722469726 722469723"/>
    </vehicle>
    <vehicle id="63" depart="90.72" departLane="best" departPos="random" departSpeed="max">