<?xml version="1.0" encoding="UTF-8"?>

<!-- generated on 2026-06-12T19:21:50.309789+00:00 by Eclipse SUMO netconvert 1.27.0
<netconvertConfiguration xmlns:xsi="http://www.w3.org/2001/XMLSchema-instance" xsi:noNamespaceSchemaLocation="http://sumo.dlr.de/xsd/netconvertConfiguration.xsd">

    <input>
        <osm-files value="C:\Users\ilias\Desktop\TGCN\simulation\osm\casablanca.osm.xml"/>
    </input>

    <output>
        <output-file value="C:\Users\ilias\Desktop\TGCN\simulation\sumo_files\casablanca.net.xml"/>
        <output.street-names value="true"/>
    </output>

    <projection>
        <proj.utm value="true"/>
    </projection>

    <processing>
        <geometry.remove value="true"/>
    </processing>

    <tls_building>
        <tls.discard-simple value="true"/>
        <tls.guess-signals value="true"/>
        <tls.default-type value="actuated"/>
    </tls_building>

    <ramp_guessing>
        <ramps.guess value="true"/>
    </ramp_guessing>

    <edge_removal>
        <keep-edges.by-vclass value="passenger"/>
    </edge_removal>

    <junctions>
        <junctions.join value="true"/>
    </junctions>

</netconvertConfiguration>
-->

<net version="1.20" junctionCornerDetail="5" limitTurnSpeed="5.50" xmlns:xsi="http://www.w3.org/2001/XMLSchema-instance" xsi:noNamespaceSchemaLocation="http://sumo.dlr.de/xsd/net_file.xsd">

    <location netOffset="-627535.19,-3713552.55" convBoundary="0.00,0.00,6583.16,4428.97" origBoundary="-7.625915,33.553378,-7.555071,33.593700" projParameter="+proj=utm +zone=29 +ellps=WGS84 +datum=WGS84 +units=m +no_defs"/>

    <type id="highway.primary" priority="12" numLanes="2" speed="27.78" disallow="tram rail_urban rail rail_electric rail_fast ship container cable_car subway aircraft wheelchair scooter drone" oneway="0"/>
    <type id="highway.primary_link" priority="7" numLanes="1" speed="22.22" disallow="tram rail_urban rail rail_electric rail_fast ship container cable_car subway aircraft wheelchair scooter drone" oneway="0"/>
    <type id="highway.secondary" priority="11" numLanes="1" speed="27.78" disallow="tram rail_urban rail rail_electric rail_fast ship container cable_car subway aircraft wheelchair scooter drone" oneway="0"/>
    <type id="highway.secondary_link" priority="6" numLanes="1" speed="22.22" disallow="tram rail_urban rail rail_electric rail_fast ship container cable_car subway aircraft wheelchair scooter drone" oneway="0"/>
    <type id="highway.tertiary" priority="10" numLanes="1" speed="22.22" disallow="tram rail_urban rail rail_electric rail_fast ship container cable_car subway aircraft wheelchair scooter drone" oneway="0"/>
    <type id="highway.trunk" priority="13" numLanes="2" speed="27.78" disallow="pedestrian bicycle tram rail_urban rail rail_electric rail_fast ship container cable_car subway aircraft wheelchair scooter drone" oneway="0"/>

    <edge id=":10126018261_0" function="internal">
        <lane id=":10126018261_0_0" index="0" disallow="tram rail_urban rail rail_electric rail_fast ship container cable_car subway aircraft wheelchair scooter drone" speed="27.78" length="7.59" shape="2504.25,3499.92 2502.82,3501.47 2502.47,3503.07 2502.16,3504.73 2500.89,3506.48"/>
        <lane id=":10126018261_0_1" index="1" disallow="tram rail_urban rail rail_electric rail_fast ship container cable_car subway aircraft wheelchair scooter drone" speed="27.78" length="7.59" shape="2504.25,3499.92 2502.56,3501.06 2501.43,3501.87 2500.35,3502.74 2498.80,3504.06"/>
        <lane id=":10126018261_0_2" index="2" disallow="tram rail_urban rail rail_electric rail_fast ship container cable_car subway aircraft wheelchair scooter drone" speed="27.78" length="7.59" shape="2502.48,3497.26 2500.69,3498.46 2499.49,3499.31 2498.35,3500.24 2496.71,3501.63"/>
        <lane id=":10126018261_0_3" index="3" disallow="tram rail_urban rail rail_electric rail_fast ship container cable_car subway aircraft wheelchair scooter drone" speed="27.78" length="7.59" shape="2500.70,3494.60 2498.82,3495.86 2497.56,3496.76 2496.35,3497.74 2494.63,3499.21"/>
        <lane id=":10126018261_0_4" index="4" disallow="tram rail_urban rail rail_electric rail_fast ship container cable_car subway aircraft wheelchair scooter drone" speed="27.78" length="7.59" shape="2500.70,3494.60 2498.39,3495.54 2496.50,3495.54 2494.67,3495.61 2492.54,3496.78"/>
    </edge>
    <edge id=":10174732136_0" function="internal">
        <lane id=":10174732136_0_0" index="0" disallow="pedestrian bicycle tram rail_urban rail rail_electric rail_fast ship container cable_car subway aircraft wheelchair scooter drone" speed="19.45" length="29.89" shape="4383.41,1941.68 4391.22,1935.08 4397.10,1929.09 4401.40,1924.12 4404.48,1920.57"/>
    </edge>
    <edge id=":10174732136_1" function="internal">
        <lane id=":10174732136_1_0" index="0" disallow="pedestrian bicycle tram rail_urban rail rail_electric rail_fast ship container cable_car subway aircraft wheelchair scooter drone" speed="16.67" length="29.94" shape="4383.41,1941.68 4407.06,1923.34"/>
        <lane id=":10174732136_1_1" index="1" disallow="pedestrian bicycle tram rail_urban rail rail_electric rail_fast ship container cable_car subway aircraft wheelchair scooter drone" speed="16.67" length="29.94" shape="4385.34,1944.23 4409.01,1925.88"/>
        <lane id=":10174732136_1_2" index="2" disallow="pedestrian bicycle tram rail_urban rail rail_electric rail_fast ship container cable_car subway aircraft wheelchair scooter drone" speed="16.67" length="29.94" shape="4387.28,1946.77 4410.96,1928.41"/>
    </edge>
    <edge id=":10176016637_0" function="internal">
        <lane id=":10176016637_0_0" index="0" disallow="tram rail_urban rail rail_electric rail_fast ship container cable_car subway aircraft wheelchair scooter drone" speed="19.45" length="3.16" shape="1596.18,851.50 1595.96,852.42 1595.83,853.05 1595.73,853.68 1595.61,854.61"/>
    </edge>
    <edge id=":10176016637_1" function="internal">
        <lane id=":10176016637_1_0" index="0" disallow="tram rail_urban rail rail_electric rail_fast ship container cable_car subway aircraft wheelchair scooter drone" speed="16.67" length="3.13" shape="1593.06,850.77 1592.32,853.82"/>
        <lane id=":10176016637_1_1" index="1" disallow="tram rail_urban rail rail_electric rail_fast ship container cable_car subway aircraft wheelchair scooter drone" speed="16.67" length="3.13" shape="1589.95,850.03 1589.22,853.05"/>
    </edge>
    <edge id=":10177322070_0" function="internal">
        <lane id=":10177322070_0_0" index="0" disallow="pedestrian bicycle tram rail_urban rail rail_electric rail_fast ship container cable_car subway aircraft wheelchair scooter drone" speed="27.78" length="0.30" shape="4720.13,1532.14 4720.36,1531.94"/>
        <lane id=":10177322070_0_1" index="1" disallow="pedestrian bicycle tram rail_urban rail rail_electric rail_fast ship container cable_car subway aircraft wheelchair scooter drone" speed="27.78" length="0.30" shape="4722.18,1534.60 4722.41,1534.41"/>
    </edge>
    <edge id=":10218477480_0" function="internal">
        <lane id=":10218477480_0_0" index="0" disallow="tram rail_urban rail rail_electric rail_fast ship container cable_car subway aircraft wheelchair scooter drone" speed="8.22" length="2.61" shape="4848.17,2285.27 4850.59,2287.11"/>
        <lane id=":10218477480_0_1" index="1" disallow="tram rail_urban rail rail_electric rail_fast ship container cable_car subway aircraft wheelchair scooter drone" speed="6.38" length="2.61" shape="4849.42,2282.31 4849.96,2283.98"/>
        <lane id=":10218477480_0_2" index="2" disallow="tram rail_urban rail rail_electric rail_fast ship container cable_car subway aircraft wheelchair scooter drone" speed="6.78" length="2.61" shape="4850.67,2279.36 4849.32,2280.84"/>
        <lane id=":10218477480_0_3" index="3" disallow="tram rail_urban rail rail_electric rail_fast ship container cable_car subway aircraft wheelchair scooter drone" speed="8.95" length="2.61" shape="4851.92,2276.40 4850.96,2276.32 4850.33,2276.71 4849.68,2277.28 4848.69,2277.70"/>
    </edge>
    <edge id=":10218477480_4" function="internal">
        <lane id=":10218477480_4_0" index="0" disallow="tram rail_urban rail rail_electric rail_fast ship container cable_car subway aircraft wheelchair scooter drone" speed="22.22" length="6.35" shape="4861.73,2281.96 4858.62,2283.94 4856.45,2285.28 4854.13,2286.24 4850.59,2287.11"/>
        <lane id=":10218477480_4_1" index="1" disallow="tram rail_urban rail rail_electric rail_fast ship container cable_car subway aircraft wheelchair scooter drone" speed="22.22" length="6.35" shape="4859.11,2279.81 4856.56,2281.42 4854.77,2282.50 4852.86,2283.27 4849.96,2283.98"/>
        <lane id=":10218477480_4_2" index="2" disallow="tram rail_urban rail rail_electric rail_fast ship container cable_car subway aircraft wheelchair scooter drone" speed="11.22" length="6.35" shape="4851.13,2280.91 4850.65,2281.07 4850.27,2280.99 4849.87,2280.84 4849.32,2280.84"/>
        <lane id=":10218477480_4_3" index="3" disallow="tram rail_urban rail rail_electric rail_fast ship container cable_car subway aircraft wheelchair scooter drone" speed="8.35" length="6.35" shape="4848.60,2278.70 4848.69,2277.70"/>
    </edge>
    <edge id=":10218477485_0" function="internal">
        <lane id=":10218477485_0_0" index="0" disallow="tram rail_urban rail rail_electric rail_fast ship container cable_car subway aircraft wheelchair scooter drone" speed="9.66" length="9.10" shape="4830.30,2261.34 4832.12,2260.92 4833.41,2260.59 4834.50,2259.95 4835.72,2258.63"/>
        <lane id=":10218477485_0_1" index="1" disallow="tram rail_urban rail rail_electric rail_fast ship container cable_car subway aircraft wheelchair scooter drone" speed="10.98" length="9.10" shape="4831.27,2264.39 4833.64,2263.81 4835.28,2263.29 4836.66,2262.37 4838.24,2260.60"/>
        <lane id=":10218477485_0_2" index="2" disallow="tram rail_urban rail rail_electric rail_fast ship container cable_car subway aircraft wheelchair scooter drone" speed="12.17" length="9.10" shape="4832.25,2267.44 4835.15,2266.70 4837.15,2265.99 4838.82,2264.79 4840.76,2262.58"/>
        <lane id=":10218477485_0_3" index="3" disallow="tram rail_urban rail rail_electric rail_fast ship container cable_car subway aircraft wheelchair scooter drone" speed="22.22" length="9.10" shape="4833.21,2270.50 4836.48,2269.38 4838.53,2268.15 4840.45,2266.62 4843.33,2264.60"/>
    </edge>
    <edge id=":10218477485_4" function="internal">
        <lane id=":10218477485_4_0" index="0" disallow="tram rail_urban rail rail_electric rail_fast ship container cable_car subway aircraft wheelchair scooter drone" speed="22.22" length="6.94" shape="4830.13,2270.90 4831.30,2267.02 4832.15,2264.35 4833.39,2261.89 4835.72,2258.63"/>
        <lane id=":10218477485_4_1" index="1" disallow="tram rail_urban rail rail_electric rail_fast ship container cable_car subway aircraft wheelchair scooter drone" speed="22.22" length="6.94" shape="4833.78,2270.00 4834.71,2267.02 4835.41,2264.98 4836.42,2263.11 4838.24,2260.60"/>
        <lane id=":10218477485_4_2" index="2" disallow="tram rail_urban rail rail_electric rail_fast ship container cable_car subway aircraft wheelchair scooter drone" speed="11.79" length="6.94" shape="4839.13,2263.87 4839.43,2263.37 4839.83,2263.16 4840.28,2262.99 4840.76,2262.58"/>
        <lane id=":10218477485_4_3" index="3" disallow="tram rail_urban rail rail_electric rail_fast ship container cable_car subway aircraft wheelchair scooter drone" speed="4.84" length="6.94" shape="4842.71,2263.22 4843.33,2264.60"/>
    </edge>
    <edge id=":10218477489_0" function="internal">
        <lane id=":10218477489_0_0" index="0" disallow="tram rail_urban rail rail_electric rail_fast ship container cable_car subway aircraft wheelchair scooter drone" speed="6.04" length="2.90" shape="4865.44,2270.14 4865.28,2273.03"/>
        <lane id=":10218477489_0_1" index="1" disallow="tram rail_urban rail rail_electric rail_fast ship container cable_car subway aircraft wheelchair scooter drone" speed="8.06" length="5.47" shape="4865.44,2270.14 4862.63,2274.84"/>
        <lane id=":10218477489_0_2" index="2" disallow="tram rail_urban rail rail_electric rail_fast ship container cable_car subway aircraft wheelchair scooter drone" speed="9.91" length="8.49" shape="4865.44,2270.14 4859.99,2276.65"/>
        <lane id=":10218477489_0_3" index="3" disallow="tram rail_urban rail rail_electric rail_fast ship container cable_car subway aircraft wheelchair scooter drone" speed="11.52" length="11.61" shape="4865.44,2270.14 4857.34,2278.46"/>
    </edge>
    <edge id=":10218477489_4" function="internal">
        <lane id=":10218477489_4_0" index="0" disallow="tram rail_urban rail rail_electric rail_fast ship container cable_car subway aircraft wheelchair scooter drone" speed="10.35" length="12.46" shape="4865.44,2270.14 4864.85,2274.68 4864.07,2278.15 4863.08,2280.54 4861.90,2281.86"/>
        <lane id=":10218477489_4_1" index="1" disallow="tram rail_urban rail rail_electric rail_fast ship container cable_car subway aircraft wheelchair scooter drone" speed="9.53" length="12.46" shape="4862.25,2269.85 4861.76,2273.67 4861.10,2276.58 4860.28,2278.60 4859.28,2279.70"/>
        <lane id=":10218477489_4_2" index="2" disallow="tram rail_urban rail rail_electric rail_fast ship container cable_car subway aircraft wheelchair scooter drone" speed="9.31" length="12.46" shape="4859.04,2269.55 4859.01,2272.44 4857.71,2275.27 4855.14,2278.06 4851.30,2280.81"/>
        <lane id=":10218477489_4_3" index="3" disallow="tram rail_urban rail rail_electric rail_fast ship container cable_car subway aircraft wheelchair scooter drone" speed="8.61" length="12.46" shape="4855.70,2269.25 4855.63,2271.54 4854.45,2273.87 4852.16,2276.22 4848.77,2278.60"/>
    </edge>
    <edge id=":10218477496_0" function="internal">
        <lane id=":10218477496_0_0" index="0" disallow="tram rail_urban rail rail_electric rail_fast ship container cable_car subway aircraft wheelchair scooter drone" speed="22.22" length="11.34" shape="4840.57,2285.42 4837.56,2283.95 4835.39,2283.20 4833.13,2282.65 4829.87,2281.78"/>
        <lane id=":10218477496_0_1" index="1" disallow="tram rail_urban rail rail_electric rail_fast ship container cable_car subway aircraft wheelchair scooter drone" speed="22.22" length="11.82" shape="4840.57,2285.42 4837.68,2283.44 4835.93,2281.67 4834.09,2280.12 4830.95,2278.76"/>
        <lane id=":10218477496_0_2" index="2" disallow="tram rail_urban rail rail_electric rail_fast ship container cable_car subway aircraft wheelchair scooter drone" speed="22.22" length="13.34" shape="4840.57,2285.42 4837.71,2282.87 4836.49,2280.12 4835.17,2277.60 4832.03,2275.74"/>
        <lane id=":10218477496_0_3" index="3" disallow="tram rail_urban rail rail_electric rail_fast ship container cable_car subway aircraft wheelchair scooter drone" speed="22.22" length="15.59" shape="4840.57,2285.42 4837.66,2282.26 4837.05,2278.55 4836.33,2275.10 4833.10,2272.72"/>
    </edge>
    <edge id=":10218477496_4" function="internal">
        <lane id=":10218477496_4_0" index="0" disallow="tram rail_urban rail rail_electric rail_fast ship container cable_car subway aircraft wheelchair scooter drone" speed="9.91" length="17.11" shape="4840.57,2285.42 4835.08,2281.91 4831.50,2278.35 4829.83,2274.74 4830.06,2271.09"/>
        <lane id=":10218477496_4_1" index="1" disallow="tram rail_urban rail rail_electric rail_fast ship container cable_car subway aircraft wheelchair scooter drone" speed="9.15" length="17.11" shape="4842.09,2282.61 4837.61,2279.69 4834.72,2276.65 4833.43,2273.48 4833.72,2270.19"/>
        <lane id=":10218477496_4_2" index="2" disallow="tram rail_urban rail rail_electric rail_fast ship container cable_car subway aircraft wheelchair scooter drone" speed="9.60" length="17.11" shape="4843.61,2279.79 4840.25,2277.15 4838.38,2273.64 4837.98,2269.28 4839.07,2264.06"/>
        <lane id=":10218477496_4_3" index="3" disallow="tram rail_urban rail rail_electric rail_fast ship container cable_car subway aircraft wheelchair scooter drone" speed="8.81" length="17.11" shape="4845.14,2276.98 4842.78,2274.94 4841.58,2272.00 4841.54,2268.16 4842.65,2263.41"/>
    </edge>
    <edge id=":10218477501_0" function="internal">
        <lane id=":10218477501_0_0" index="0" disallow="tram rail_urban rail rail_electric rail_fast ship container cable_car subway aircraft wheelchair scooter drone" speed="22.22" length="29.90" shape="4875.17,2297.14 4869.22,2293.94 4863.67,2291.21 4857.16,2288.49 4848.36,2285.33"/>
        <lane id=":10218477501_0_1" index="1" disallow="tram rail_urban rail rail_electric rail_fast ship container cable_car subway aircraft wheelchair scooter drone" speed="22.22" length="29.90" shape="4875.17,2297.14 4869.43,2293.49 4864.33,2289.75 4858.26,2286.01 4849.61,2282.38"/>
        <lane id=":10218477501_0_2" index="2" disallow="tram rail_urban rail rail_electric rail_fast ship container cable_car subway aircraft wheelchair scooter drone" speed="22.22" length="29.90" shape="4876.69,2294.33 4870.94,2290.66 4865.78,2286.88 4859.62,2283.10 4850.86,2279.42"/>
        <lane id=":10218477501_0_3" index="3" disallow="tram rail_urban rail rail_electric rail_fast ship container cable_car subway aircraft wheelchair scooter drone" speed="22.22" length="29.90" shape="4876.69,2294.33 4871.17,2290.21 4866.50,2285.44 4860.78,2280.64 4852.11,2276.47"/>
    </edge>
    <edge id=":10218477501_4" function="internal">
        <lane id=":10218477501_4_0" index="0" disallow="tram rail_urban rail rail_electric rail_fast ship container cable_car subway aircraft wheelchair scooter drone" speed="3.65" length="1.44" shape="4876.69,2294.33 4876.02,2293.05"/>
    </edge>
    <edge id=":10218477501_10" function="internal">
        <lane id=":10218477501_10_0" index="0" disallow="tram rail_urban rail rail_electric rail_fast ship container cable_car subway aircraft wheelchair scooter drone" speed="3.65" length="3.23" shape="4876.02,2293.05 4876.05,2292.16 4876.79,2291.65 4878.22,2291.52"/>
    </edge>
    <edge id=":10218477501_5" function="internal">
        <lane id=":10218477501_5_0" index="0" disallow="tram rail_urban rail rail_electric rail_fast ship container cable_car subway aircraft wheelchair scooter drone" speed="22.22" length="22.10" shape="4865.40,2273.19 4869.16,2278.45 4871.73,2282.28 4874.72,2285.44 4879.75,2288.70"/>
        <lane id=":10218477501_5_1" index="1" disallow="tram rail_urban rail rail_electric rail_fast ship container cable_car subway aircraft wheelchair scooter drone" speed="22.22" length="22.10" shape="4865.40,2273.19 4869.08,2279.10 4871.11,2283.86 4873.48,2287.88 4878.22,2291.52"/>
    </edge>
    <edge id=":10218477501_7" function="internal">
        <lane id=":10218477501_7_0" index="0" disallow="tram rail_urban rail rail_electric rail_fast ship container cable_car subway aircraft wheelchair scooter drone" speed="7.26" length="4.99" shape="4862.76,2275.00 4864.00,2279.31 4863.64,2279.67"/>
        <lane id=":10218477501_7_1" index="1" disallow="tram rail_urban rail rail_electric rail_fast ship container cable_car subway aircraft wheelchair scooter drone" speed="6.45" length="1.43" shape="4860.11,2276.81 4860.81,2278.06"/>
        <lane id=":10218477501_7_2" index="2" disallow="tram rail_urban rail rail_electric rail_fast ship container cable_car subway aircraft wheelchair scooter drone" speed="4.27" length="5.77" shape="4857.46,2278.62 4852.11,2276.47"/>
    </edge>
    <edge id=":10218477501_11" function="internal">
        <lane id=":10218477501_11_0" index="0" disallow="tram rail_urban rail rail_electric rail_fast ship container cable_car subway aircraft wheelchair scooter drone" speed="7.26" length="15.23" shape="4863.64,2279.67 4861.10,2282.17 4855.74,2283.29 4849.61,2282.38"/>
        <lane id=":10218477501_11_1" index="0" disallow="tram rail_urban rail rail_electric rail_fast ship container cable_car subway aircraft wheelchair scooter drone" speed="6.45" length="14.13" shape="4860.81,2278.06 4861.83,2279.91 4860.87,2281.38 4857.21,2281.22 4850.86,2279.42"/>
    </edge>
    <edge id=":10220779576_0" function="internal">
        <lane id=":10220779576_0_0" index="0" disallow="pedestrian tram rail_urban rail rail_electric rail_fast ship container cable_car subway aircraft wheelchair scooter drone" speed="22.22" length="0.37" shape="4272.36,2007.87 4272.28,2007.95 4272.23,2008.00 4272.19,2008.07 4272.13,2008.16"/>
    </edge>
    <edge id=":10220959253_0" function="internal">
        <lane id=":10220959253_0_0" index="0" disallow="tram rail_urban rail rail_electric rail_fast ship container cable_car subway aircraft wheelchair scooter drone" speed="16.67" length="3.29" shape="2186.95,1766.05 2184.15,1763.98"/>
        <lane id=":10220959253_0_1" index="1" disallow="tram rail_urban rail rail_electric rail_fast ship container cable_car subway aircraft wheelchair scooter drone" speed="16.67" length="3.29" shape="2188.77,1763.42 2186.13,1761.47"/>
        <lane id=":10220959253_0_2" index="2" disallow="tram rail_urban rail rail_electric rail_fast ship container cable_car subway aircraft wheelchair scooter drone" speed="16.67" length="3.29" shape="2190.59,1760.78 2188.10,1758.95"/>
    </edge>
    <edge id=":10220959253_3" function="internal">
        <lane id=":10220959253_3_0" index="0" disallow="tram rail_urban rail rail_electric rail_fast ship container cable_car subway aircraft wheelchair scooter drone" speed="8.95" length="2.33" shape="2182.89,1770.47 2182.01,1770.27 2181.43,1770.00 2180.92,1769.61 2180.20,1769.02"/>
        <lane id=":10220959253_3_1" index="1" disallow="tram rail_urban rail rail_electric rail_fast ship container cable_car subway aircraft wheelchair scooter drone" speed="6.49" length="2.33" shape="2183.46,1767.32 2183.02,1767.20 2182.76,1767.04 2182.52,1766.81 2182.18,1766.50"/>
    </edge>
    <edge id=":10244191292_0" function="internal">
        <lane id=":10244191292_0_0" index="0" disallow="pedestrian bicycle tram rail_urban rail rail_electric rail_fast ship container cable_car subway aircraft wheelchair scooter drone" speed="9.26" length="8.85" shape="2745.19,3325.97 2742.43,3325.93 2740.11,3326.24 2738.24,3326.92 2736.81,3327.95"/>
        <lane id=":10244191292_0_1" index="1" disallow="pedestrian bicycle tram rail_urban rail rail_electric rail_fast ship container cable_car subway aircraft wheelchair scooter drone" speed="15.89" length="13.20" shape="2746.91,3322.43 2742.99,3322.92 2740.08,3322.91 2737.50,3323.48 2734.54,3325.69"/>
    </edge>
    <edge id=":10244191292_2" function="internal">
        <lane id=":10244191292_2_0" index="0" disallow="pedestrian bicycle tram rail_urban rail rail_electric rail_fast ship container cable_car subway aircraft wheelchair scooter drone" speed="27.78" length="14.10" shape="2746.57,3317.38 2736.81,3327.95"/>
        <lane id=":10244191292_2_1" index="1" disallow="pedestrian bicycle tram rail_urban rail rail_electric rail_fast ship container cable_car subway aircraft wheelchair scooter drone" speed="27.78" length="14.10" shape="2744.10,3315.33 2734.54,3325.69"/>
        <lane id=":10244191292_2_2" index="2" disallow="pedestrian bicycle tram rail_urban rail rail_electric rail_fast ship container cable_car subway aircraft wheelchair scooter drone" speed="27.78" length="14.10" shape="2741.64,3313.28 2732.27,3323.43"/>
    </edge>
    <edge id=":11005429714_0" function="internal">
        <lane id=":11005429714_0_0" index="0" disallow="pedestrian bicycle tram rail_urban rail rail_electric rail_fast ship container cable_car subway aircraft wheelchair scooter drone" speed="5.10" length="3.11" shape="2625.17,3372.62 2625.85,3372.20 2626.59,3371.83 2627.33,3371.64 2628.03,3371.79"/>
        <lane id=":11005429714_0_1" index="1" disallow="pedestrian bicycle tram rail_urban rail rail_electric rail_fast ship container cable_car subway aircraft wheelchair scooter drone" speed="3.41" length="1.04" shape="2626.86,3375.34 2627.02,3375.18 2627.01,3375.01 2626.84,3374.81 2626.51,3374.60"/>
    </edge>
    <edge id=":11005429714_2" function="internal">
        <lane id=":11005429714_2_0" index="0" disallow="pedestrian bicycle tram rail_urban rail rail_electric rail_fast ship container cable_car subway aircraft wheelchair scooter drone" speed="27.78" length="2.97" shape="2628.56,3378.05 2631.05,3376.48"/>
        <lane id=":11005429714_2_1" index="1" disallow="pedestrian bicycle tram rail_urban rail rail_electric rail_fast ship container cable_car subway aircraft wheelchair scooter drone" speed="27.78" length="2.97" shape="2630.25,3380.77 2632.76,3379.19"/>
        <lane id=":11005429714_2_2" index="2" disallow="pedestrian bicycle tram rail_urban rail rail_electric rail_fast ship container cable_car subway aircraft wheelchair scooter drone" speed="27.78" length="2.97" shape="2631.95,3383.48 2634.48,3381.89"/>
    </edge>
    <edge id=":1119338398#2-AddedOnRampNode_0" function="internal">
        <lane id=":1119338398#2-AddedOnRampNode_0_0" index="0" disallow="tram rail_urban rail rail_electric rail_fast ship container cable_car subway aircraft wheelchair scooter drone" speed="22.22" length="8.00" shape="3853.55,2406.39 3847.34,2411.42"/>
        <lane id=":1119338398#2-AddedOnRampNode_0_1" index="1" disallow="tram rail_urban rail rail_electric rail_fast ship container cable_car subway aircraft wheelchair scooter drone" speed="22.22" length="8.00" shape="3851.54,2403.90 3845.32,2408.93"/>
    </edge>
    <edge id=":12177189618_0" function="internal">
        <lane id=":12177189618_0_0" index="0" disallow="tram rail_urban rail rail_electric rail_fast ship container cable_car subway aircraft wheelchair scooter drone" speed="12.22" length="14.23" shape="2011.12,1237.65 2008.49,1237.15 2005.33,1237.40 2001.64,1238.42 1997.44,1240.18"/>
    </edge>
    <edge id=":12177189618_1" function="internal">
        <lane id=":12177189618_1_0" index="0" disallow="tram rail_urban rail rail_electric rail_fast ship container cable_car subway aircraft wheelchair scooter drone" speed="17.36" length="16.34" shape="2011.12,1237.65 2006.32,1236.22 2002.84,1235.35 1999.86,1233.79 1996.60,1230.30"/>
        <lane id=":12177189618_1_1" index="1" disallow="tram rail_urban rail rail_electric rail_fast ship container cable_car subway aircraft wheelchair scooter drone" speed="17.15" length="16.34" shape="2012.23,1234.65 2007.57,1233.20 2004.22,1232.24 2001.38,1230.60 1998.22,1227.13"/>
        <lane id=":12177189618_1_2" index="2" disallow="tram rail_urban rail rail_electric rail_fast ship container cable_car subway aircraft wheelchair scooter drone" speed="16.94" length="16.34" shape="2013.34,1231.64 2008.82,1230.18 2005.61,1229.12 2002.90,1227.40 1999.85,1223.96"/>
    </edge>
    <edge id=":12177189618_4" function="internal">
        <lane id=":12177189618_4_0" index="0" disallow="tram rail_urban rail rail_electric rail_fast ship container cable_car subway aircraft wheelchair scooter drone" speed="5.91" length="8.36" shape="1996.06,1237.30 1997.69,1236.09 1998.33,1234.52 1997.96,1232.59 1996.60,1230.30"/>
    </edge>
    <edge id=":12186620341_0" function="internal">
        <lane id=":12186620341_0_0" index="0" disallow="tram rail_urban rail rail_electric rail_fast ship container cable_car subway aircraft wheelchair scooter drone" speed="19.45" length="3.16" shape="1267.77,1741.07 1268.30,1740.29 1268.65,1739.75 1268.97,1739.20 1269.42,1738.38"/>
    </edge>
    <edge id=":12186620341_1" function="internal">
        <lane id=":12186620341_1_0" index="0" disallow="tram rail_urban rail rail_electric rail_fast ship container cable_car subway aircraft wheelchair scooter drone" speed="16.67" length="3.16" shape="1270.41,1742.88 1272.31,1740.25"/>
        <lane id=":12186620341_1_1" index="1" disallow="tram rail_urban rail rail_electric rail_fast ship container cable_car subway aircraft wheelchair scooter drone" speed="16.67" length="3.16" shape="1273.04,1744.69 1274.85,1742.19"/>
    </edge>
    <edge id=":12191908977_0" function="internal">
        <lane id=":12191908977_0_0" index="0" disallow="tram rail_urban rail rail_electric rail_fast ship container cable_car subway aircraft wheelchair scooter drone" speed="3.65" length="4.67" shape="505.84,3208.33 504.52,3207.75 503.98,3207.03 504.24,3206.17 505.28,3205.17"/>
    </edge>
    <edge id=":12197540383_0" function="internal">
        <lane id=":12197540383_0_0" index="0" disallow="tram rail_urban rail rail_electric rail_fast ship container cable_car subway aircraft wheelchair scooter drone" speed="16.67" length="8.19" shape="1601.95,832.95 1600.65,834.95 1599.89,836.41 1599.39,837.98 1598.82,840.31"/>
        <lane id=":12197540383_0_1" index="1" disallow="tram rail_urban rail rail_electric rail_fast ship container cable_car subway aircraft wheelchair scooter drone" speed="16.67" length="8.19" shape="1598.78,831.93 1597.46,834.00 1596.74,835.53 1596.27,837.17 1595.71,839.57"/>
    </edge>
    <edge id=":12197540383_2" function="internal">
        <lane id=":12197540383_2_0" index="0" disallow="tram rail_urban rail rail_electric rail_fast ship container cable_car subway aircraft wheelchair scooter drone" speed="4.05" length="5.64" shape="1597.81,831.61 1592.44,829.88"/>
        <lane id=":12197540383_2_1" index="1" disallow="tram rail_urban rail rail_electric rail_fast ship container cable_car subway aircraft wheelchair scooter drone" speed="4.67" length="8.21" shape="1597.81,831.61 1598.52,828.80 1598.40,827.75 1597.43,828.45 1595.61,830.91"/>
    </edge>
    <edge id=":12197540383_4" function="internal">
        <lane id=":12197540383_4_0" index="0" disallow="tram rail_urban rail rail_electric rail_fast ship container cable_car subway aircraft wheelchair scooter drone" speed="16.67" length="8.36" shape="1597.81,831.61 1595.71,839.57"/>