<?xml version="1.0" encoding="UTF-8"?>

<!-- generated on 2026-06-10 21:46:01.524121 by Eclipse SUMO randomTrips.py v1_27_0+0000-e238ea04b71
<configuration>
    <net-file value="C:\Users\ilias\Desktop\TGCN\simulation\sumo_files\casablanca.net.xml"/>
    <route-file value="C:\Users\ilias\Desktop\TGCN\simulation\sumo_files\casablanca.rou.xml"/>
    <trip-attributes value="departLane=&quot;best&quot; departSpeed=&quot;max&quot; departPos=&quot;random&quot;"/>
    <period value="1.44"/>
</configuration>
-->

<routes xmlns:xsi="http://www.w3.org/2001/XMLSchema-instance" xsi:noNamespaceSchemaLocation="http://sumo.dlr.de/xsd/routes_file.xsd">
    <trip id="0" depart="0.00" from="422280758" to="-186242127" departLane="best" departSpeed="max" departPos="random"/>
    <trip id="1" depart="1.44" from="163871531" to="1424655878" departLane="best" departSpeed="max" departPos="random"/>
    <trip id="2" depart="2.88" from="589964064" to="-421854343#1" departLane="best" departSpeed="max" departPos="random"/>
    <trip id="3" depart="4.32" from="36862101" to="-214858651" departLane="best" departSpeed="max" departPos="random"/>
    <trip id="4" depart="5.76" from="1320388073#1" to="420357975" departLane="best" departSpeed="max" departPos="random"/>
    <trip id="5" depart="7.20" from="-214858651" to="1319808593#2" departLane="best" departSpeed="max" departPos="random"/>
    <trip id="6" depart="8.64" from="422488758" to="421418738" departLane="best" departSpeed="max" departPos="random"/>
    <trip id="7" depart="10.08" from="1371069878" to="421651433#1" departLane="best" departSpeed="max" departPos="random"/>
    <trip id="8" depart="11.52" from="572168107" to="-1371385741" departLane="best" departSpeed="max" departPos="random"/>
    <trip id="9" depart="12.96" from="550649033-AddedOffRampEdge" to="422535912-AddedOffRampEdge" departLane="best" departSpeed="max" departPos="random"/>
    <trip id="10" depart="14.40" from="215453379" to="1117235909" departLane="best" departSpeed="max" departPos="random"/>
    <trip id="11" depart="15.84" from="729012914#0" to="215453379" departLane="best" departSpeed="max" departPos="random"/>
    <trip id="12" depart="17.28" from="-422517494" to="-476302646" departLane="best" departSpeed="max" departPos="random"/>
    <trip id="13" depart="18.72" from="583606361#1" to="421651452" departLane="best" departSpeed="max" departPos="random"/>
    <trip id="14" depart="20.16" from="421418698" to="731152429" departLane="best" departSpeed="max" departPos="random"/>
    <trip id="15" depart="21.60" from="315894504" to="421569491#2-AddedOffRampEdge" departLane="best" departSpeed="max" departPos="random"/>
    <trip id="16" depart="23.04" from="579856803" to="421854313#2" departLane="best" departSpeed="max" departPos="random"/>
    <trip id="17" depart="24.48" from="583812541" to="421651413#1" departLane="best" departSpeed="max" departPos="random"/>
    <trip id="18" depart="25.92" from="422539937#0" to="-36854821#1" departLane="best" departSpeed="max" departPos="random"/>
    <trip id="19" depart="27.36" from="1424655878" to="186240964#0" departLane="best" departSpeed="max" departPos="random"/>
    <trip id="20" depart="28.80" from="-421569509#2" to="1457934542" departLane="best" departSpeed="max" departPos="random"/>
    <trip id="21" depart="30.24" from="-515427176#1" to="174115037" departLane="best" departSpeed="max" departPos="random"/>
    <trip id="22" depart="31.68" from="421881775#1-AddedOnRampEdge" to="315894488" departLane="best" departSpeed="max" departPos="random"/>
    <trip id="23" depart="33.12" from="301939875#0" to="1320388072#0" departLane="best" departSpeed="max" departPos="random"/>
    <trip id="24" depart="34.56" from="157308227#0" to="719551335" departLane="best" departSpeed="max" departPos="random"/>
    <trip id="25" depart="36.00" from="422488756" to="421651455" departLane="best" departSpeed="max" departPos="random"/>
    <trip id="26" depart="37.44" from="1119338398#2" to="32511973" departLane="best" departSpeed="max" departPos="random"/>
    <trip id="27" depart="38.88" from="745068465" to="421881775#1-AddedOnRampEdge" departLane="best" departSpeed="max" departPos="random"/>
    <trip id="28" depart="40.32" from="421569497" to="422535864#1" departLane="best" departSpeed="max" departPos="random"/>
    <trip id="29" depart="41.76" from="583606360" to="516453563" departLane="best" departSpeed="max" departPos="random"/>
    <trip id="30" depart="43.20" from="1443919176" to="-234617359" departLane="best" departSpeed="max" departPos="random"/>
    <trip id="31" depart="44.64" from="203821741" to="163871526" departLane="best" departSpeed="max" departPos="random"/>
    <trip id="32" depart="46.08" from="1320388071#1" to="722128756" departLane="best" departSpeed="max" departPos="random"/>
    <trip id="33" depart="47.52" from="588736872" to="203821761#1" departLane="best" departSpeed="max" departPos="random"/>
    <trip id="34" depart="48.96" from="422488780#1" to="36854821#0" departLane="best" departSpeed="max" departPos="random"/>
    <trip id="35" depart="50.40" from="592408156" to="381025455#4" departLane="best" departSpeed="max" departPos="random"/>
    <trip id="36" depart="51.84" from="157308222#0-AddedOnRampEdge" to="157186425#1-AddedOnRampEdge" departLane="best" departSpeed="max" departPos="random"/>
    <trip id="37" depart="53.28" from="421569512#0-AddedOffRampEdge" to="163871513" departLane="best" departSpeed="max" departPos="random"/>
    <trip id="38" depart="54.72" from="421651428#1" to="590284846" departLane="best" departSpeed="max" departPos="random"/>
    <trip id="39" depart="56.16" from="36854377#2" to="1424655874" departLane="best" departSpeed="max" departPos="random"/>
    <trip id="40" depart="57.60" from="853292343#1" to="420358017" departLane="best" departSpeed="max" departPos="random"/>
    <trip id="41" depart="59.04" from="-422488758" to="-36854835#0" departLane="best" departSpeed="max" departPos="random"/>
    <trip id="42" depart="60.48" from="-579349407" to="421854338#2" departLane="best" departSpeed="max" departPos="random"/>
    <trip id="43" depart="61.92" from="519061861" to="36862455#0" departLane="best" departSpeed="max" departPos="random"/>
    <trip id="44" depart="63.36" from="-38704375" to="32511973-AddedOffRampEdge" departLane="best" departSpeed="max" departPos="random"/>
    <trip id="45" depart="64.80" from="853292343#0-AddedOffRampEdge" to="421403862#0" departLane="best" departSpeed="max" departPos="random"/>
    <trip id="46" depart="66.24" from="731152429" to="583812532" departLane="best" departSpeed="max" departPos="random"/>
    <trip id="47" depart="67.68" from="-157186416#2" to="422855899#0" departLane="best" departSpeed="max" departPos="random"/>
    <trip id="48" depart="69.12" from="422535868#0" to="421418698" departLane="best" departSpeed="max" departPos="random"/>
    <trip id="49" depart="70.56" from="157308227#0" to="421881777#0" departLane="best" departSpeed="max" departPos="random"/>
    <trip id="50" depart="72.00" from="-583266088#0" to="36866383" departLane="best" departSpeed="max" departPos="random"/>
    <trip id="51" depart="73.44" from="36866505#1" to="726114895" departLane="best" departSpeed="max" departPos="random"/>
    <trip id="52" depart="74.88" from="588469644" to="163871513" departLane="best" departSpeed="max" departPos="random"/>
    <trip id="53" depart="76.32" from="420357960" to="1316020514#0" departLane="best" departSpeed="max" departPos="random"/>
    <trip id="54" depart="77.76" from="186242121#1" to="421881775#1-AddedOnRampEdge" departLane="best" departSpeed="max" departPos="random"/>
    <trip id="55" depart="79.20" from="421693911#0" to="1117235907" departLane="best" departSpeed="max" departPos="random"/>
    <trip id="56" depart="80.64" from="515427524#0" to="421418720#0" departLane="best" departSpeed="max" departPos="random"/>
    <trip id="57" depart="82.08" from="518347573#2" to="421403862#0-AddedOffRampEdge" departLane="best" departSpeed="max" departPos="random"/>
    <trip id="58" depart="83.52" from="-1111904646#1" to="204174454" departLane="best" departSpeed="max" departPos="random"/>
    <trip id="59" depart="84.96" from="-186242121#1" to="637304502" departLane="best" departSpeed="max" departPos="random"/>
    <trip id="60" depart="86.40" from="588736874" to="579476493#1" departLane="best" departSpeed="max" departPos="random"/>
    <trip id="61" depart="87.84" from="202733845#0" to="-381025465#1" departLane="best" departSpeed="max" departPos="random"/>
    <trip id="62" depart="89.28" from="588736874" to="722469723" departLane="best" departSpeed="max" departPos="random"/>
    <trip id="63" depart="90.72" from="-421854343#1" to="407158852#0" departLane="best" departSpeed="max" departPos="random"/>
    <trip id="64" depart="92.16" from="-4071555" to="511730179" departLane="best" departSpeed="max" departPos="random"/>
    <trip id="65" depart="93.60" from="516539037" to="1106620645#0" departLane="best" departSpeed="max" departPos="random"/>
    <trip id="66" depart="95.04" from="38557156#1" to="421569491#2" departLane="best" departSpeed="max" departPos="random"/>
    <trip id="67" depart="96.48" from="157308222#0-AddedOnRampEdge" to="583836340#3" departLane="best" departSpeed="max" departPos="random"/>
    <trip id="68" depart="97.92" from="36862123" to="1320388073#0" departLane="best" departSpeed="max" departPos="random"/>
    <trip id="69" depart="99.36" from="1319808593#1" to="203821735" departLane="best" departSpeed="max" departPos="random"/>
    <trip id="70" depart="100.80" from="853292343#0" to="422314203#1" departLane="best" departSpeed="max" departPos="random"/>
    <trip id="71" depart="102.24" from="36863792" to="421387191#0" departLane="best" departSpeed="max" departPos="random"/>
    <trip id="72" depart="103.68" from="-606139308" to="1443919176" departLane="best" departSpeed="max" departPos="random"/>
    <trip id="73" depart="105.12" from="214724761#1" to="421651433#0" departLane="best" departSpeed="max" departPos="random"/>
    <trip id="74" depart="106.56" from="1443919176" to="1424655876" departLane="best" departSpeed="max" departPos="random"/>
    <trip id="75" depart="108.00" from="-407171271" to="421854343#0" departLane="best" departSpeed="max" departPos="random"/>
    <trip id="76" depart="109.44" from="1443919176" to="590834962#0" departLane="best" departSpeed="max" departPos="random"/>
    <trip id="77" depart="110.88" from="583812539" to="-392693696#1" departLane="best" departSpeed="max" departPos="random"/>
    <trip id="78" depart="112.32" from="1457934542" to="422517484#0" departLane="best" departSpeed="max" departPos="random"/>
    <trip id="79" depart="113.76" from="1320388072#0" to="1111870612" departLane="best" departSpeed="max" departPos="random"/>
    <trip id="80" depart="115.20" from="719551335" to="421572462#0" departLane="best" departSpeed="max" departPos="random"/>
    <trip id="81" depart="116.64" from="38557144#1" to="518338908#2" departLane="best" departSpeed="max" departPos="random"/>
    <trip id="82" depart="118.08" from="558503761" to="1319808590" departLane="best" departSpeed="max" departPos="random"/>
    <trip id="83" depart="119.52" from="-476302646" to="36863671" departLane="best" departSpeed="max" departPos="random"/>
    <trip id="84" depart="120.96" from="36862123" to="38556667" departLane="best" departSpeed="max" departPos="random"/>
    <trip id="85" depart="122.40" from="423702932#0" to="422517484#1-AddedOnRampEdge" departLane="best" departSpeed="max" departPos="random"/>
    <trip id="86" depart="123.84" from="741749028#0" to="-515427176#1" departLane="best" departSpeed="max" departPos="random"/>
    <trip id="87" depart="125.28" from="36854710#1" to="215499805#0" departLane="best" departSpeed="max" departPos="random"/>
    <trip id="88" depart="126.72" from="583812541" to="157186438#1" departLane="best" departSpeed="max" departPos="random"/>
    <trip id="89" depart="128.16" from="1318191909" to="36867443#0" departLane="best" departSpeed="max" departPos="random"/>
    <trip id="90" depart="129.60" from="36862101" to="174115037" departLane="best" departSpeed="max" departPos="random"/>
    <trip id="91" depart="131.04" from="157186425#1" to="606139307#0" departLane="best" departSpeed="max" departPos="random"/>
    <trip id="92" depart="132.48" from="36866402#0" to="583812532" departLane="best" departSpeed="max" departPos="random"/>
    <trip id="93" depart="133.92" from="421569491#2" to="-36860979" departLane="best" departSpeed="max" departPos="random"/>
    <trip id="94" depart="135.36" from="853292344" to="579856805-AddedOnRampEdge" departLane="best" departSpeed="max" departPos="random"/>
    <trip id="95" depart="136.80" from="731152428" to="637304500" departLane="best" departSpeed="max" departPos="random"/>
    <trip id="96" depart="138.24" from="407158852#0" to="1320388073#1" departLane="best" departSpeed="max" departPos="random"/>
    <trip id="97" depart="139.68" from="36854710#0" to="-381025465#1" departLane="best" departSpeed="max" departPos="random"/>
    <trip id="98" depart="141.12" from="315894504" to="740767167" departLane="best" departSpeed="max" departPos="random"/>
    <trip id="99" depart="142.56" from="157308225" to="518338908#2" departLane="best" departSpeed="max" departPos="random"/>
    <trip id="100" depart="144.00" from="729012914#0" to="853292343#0" departLane="best" departSpeed="max" departPos="random"/>
    <trip id="101" depart="145.44" from="421569497" to="422810976" departLane="best" departSpeed="max" departPos="random"/>
    <trip id="102" depart="146.88" from="1117235907" to="186242121#1" departLane="best" departSpeed="max" departPos="random"/>
    <trip id="103" depart="148.32" from="731152428" to="421651418#0" departLane="best" departSpeed="max" departPos="random"/>
    <trip id="104" depart="149.76" from="421418720#1-AddedOnRampEdge" to="463274119" departLane="best" departSpeed="max" departPos="random"/>
    <trip id="105" depart="151.20" from="-38556532" to="421651428#0" departLane="best" departSpeed="max" departPos="random"/>
    <trip id="106" depart="152.64" from="420357975" to="583617859" departLane="best" departSpeed="max" departPos="random"/>
    <trip id="107" depart="154.08" from="1117235909" to="729012914#0" departLane="best" departSpeed="max" departPos="random"/>
    <trip id="108" depart="155.52" from="-421569509#2" to="1318191909" departLane="best" departSpeed="max" departPos="random"/>
    <trip id="109" depart="156.96" from="1457327189" to="-637304500" departLane="best" departSpeed="max" departPos="random"/>
    <trip id="110" depart="158.40" from="589279302" to="157186425#1-AddedOnRampEdge" departLane="best" departSpeed="max" departPos="random"/>
    <trip id="111" depart="159.84" from="421651438#1" to="421854313#2" departLane="best" departSpeed="max" departPos="random"/>
    <trip id="112" depart="161.28" from="36862099" to="421651428#0" departLane="best" departSpeed="max" departPos="random"/>
    <trip id="113" depart="162.72" from="421403850" to="719551333#0" departLane="best" departSpeed="max" departPos="random"/>
    <trip id="114" depart="164.16" from="1320388068#1" to="422539937#1-AddedOnRampEdge" departLane="best" departSpeed="max" departPos="random"/>
    <trip id="115" depart="165.60" from="1505882797" to="36854821#0" departLane="best" departSpeed="max" departPos="random"/>
    <trip id="116" depart="167.04" from="422517494" to="186242127" departLane="best" departSpeed="max" departPos="random"/>
    <trip id="117" depart="168.48" from="203821761#1" to="511658929" departLane="best" departSpeed="max" departPos="random"/>
    <trip id="118" depart="169.92" from="-407171272" to="381025455#2-AddedOnRampEdge" departLane="best" departSpeed="max" departPos="random"/>
    <trip id="119" depart="171.36" from="853292344" to="853292343#0" departLane="best" departSpeed="max" departPos="random"/>
    <trip id="120" depart="172.80" from="-420358017" to="1320388073#0" departLane="best" departSpeed="max" departPos="random"/>
    <trip id="121" depart="174.24" from="157308225" to="719551333#0" departLane="best" departSpeed="max" departPos="random"/>
    <trip id="122" depart="175.68" from="588743969" to="586984748" departLane="best" departSpeed="max" departPos="random"/>
    <trip id="123" depart="177.12" from="30134909" to="1119338398#1" departLane="best" departSpeed="max" departPos="random"/>
    <trip id="124" depart="178.56" from="579856808" to="422535937" departLane="best" departSpeed="max" departPos="random"/>
    <trip id="125" depart="180.00" from="421854313#0" to="741749028#0" departLane="best" departSpeed="max" departPos="random"/>
    <trip id="126" depart="181.44" from="422488780#1" to="-1371385741" departLane="best" departSpeed="max" departPos="random"/>
    <trip id="127" depart="182.88" from="579002694#1" to="186242127" departLane="best" departSpeed="max" departPos="random"/>
    <trip id="128" depart="184.32" from="422517482" to="722128753" departLane="best" departSpeed="max" departPos="random"/>
    <trip id="129" depart="185.76" from="1111870612" to="-583846252#1" departLane="best" departSpeed="max" departPos="random"/>
    <trip id="130" depart="187.20" from="-579349392" to="421569491#3" departLane="best" departSpeed="max" departPos="random"/>
    <trip id="131" depart="188.64" from="163871518" to="421651452" departLane="best" departSpeed="max" departPos="random"/>
    <trip id="132" depart="190.08" from="422855906-AddedOnRampEdge" to="1320388070#0" departLane="best" departSpeed="max" departPos="random"/>
    <trip id="133" depart="191.52" from="421881775#1-AddedOffRampEdge" to="163871513" departLane="best" departSpeed="max" departPos="random"/>
    <trip id="134" depart="192.96" from="407158853" to="590834962#0" departLane="best" departSpeed="max" departPos="random"/>
    <trip id="135" depart="194.40" from="583606361#1" to="-422517494" departLane="best" departSpeed="max" departPos="random"/>
    <trip id="136" depart="195.84" from="-1371385737" to="515427176#0" departLane="best" departSpeed="max" departPos="random"/>
    <trip id="137" depart="197.28" from="421881777#0" to="157308227#0" departLane="best" departSpeed="max" departPos="random"/>
    <trip id="138" depart="198.72" from="498910276" to="421569491#2-AddedOffRampEdge" departLane="best" departSpeed="max" departPos="random"/>
    <trip id="139" depart="200.16" from="36862455#0" to="-1372244328" departLane="best" departSpeed="max" departPos="random"/>
    <trip id="140" depart="201.60" from="-421403882" to="588736874" departLane="best" departSpeed="max" departPos="random"/>
    <trip id="141" depart="203.04" from="590847764#0" to="421418738" departLane="best" departSpeed="max" departPos="random"/>
    <trip id="142" depart="204.48" from="579856808" to="421651418#1-AddedOnRampEdge" departLane="best" departSpeed="max" departPos="random"/>
    <trip id="143" depart="205.92" from="1112807673" to="1106620645#0" departLane="best" departSpeed="max" departPos="random"/>
    <trip id="144" depart="207.36" from="202733845#0-AddedOffRampEdge" to="590551559" departLane="best" departSpeed="max" departPos="random"/>
    <trip id="145" depart="208.80" from="526279652" to="583812532" departLane="best" departSpeed="max" departPos="random"/>
    <trip id="146" depart="210.24" from="590551560-AddedOffRampEdge" to="1320388072#0" departLane="best" departSpeed="max" departPos="random"/>
    <trip id="147" depart="211.68" from="157186425#1" to="-579349392" departLane="best" departSpeed="max" departPos="random"/>
    <trip id="148" depart="213.12" from="518359727" to="588743969" departLane="best" departSpeed="max" departPos="random"/>
    <trip id="149" depart="214.56" from="36854835#0" to="421854321#0" departLane="best" departSpeed="max" departPos="random"/>
    <trip id="150" depart="216.00" from="1117235907" to="637304502" departLane="best" departSpeed="max" departPos="random"/>
    <trip id="151" depart="217.44" from="583836340#0" to="732967274" departLane="best" departSpeed="max" departPos="random"/>
    <trip id="152" depart="218.88" from="572168109" to="588736872" departLane="best" departSpeed="max" departPos="random"/>
    <trip id="153" depart="220.32" from="-214724761#1" to="427239624" departLane="best" departSpeed="max" departPos="random"/>
    <trip id="154" depart="221.76" from="550649032#0" to="583812539" departLane="best" departSpeed="max" departPos="random"/>
    <trip id="155" depart="223.20" from="572168109" to="163871518" departLane="best" departSpeed="max" departPos="random"/>
    <trip id="156" depart="224.64" from="518367981#1-AddedOnRampEdge" to="-579476493#0" departLane="best" departSpeed="max" departPos="random"/>
    <trip id="157" depart="226.08" from="586984747" to="583812530" departLane="best" departSpeed="max" departPos="random"/>
    <trip id="158" depart="227.52" from="1424655874" to="575618607" departLane="best" departSpeed="max" departPos="random"/>
    <trip id="159" depart="228.96" from="381025455#2" to="202733845#0" departLane="best" departSpeed="max" departPos="random"/>
    <trip id="160" depart="230.40" from="526279652" to="1443919177#0" departLane="best" departSpeed="max" departPos="random"/>
    <trip id="161" depart="231.84" from="-214724761#0" to="1319808592" departLane="best" departSpeed="max" departPos="random"/>
    <trip id="162" depart="233.28" from="208352437" to="583812539" departLane="best" departSpeed="max" departPos="random"/>
    <trip id="163" depart="234.72" from="729019795" to="174115038#0" departLane="best" departSpeed="max" departPos="random"/>
    <trip id="164" depart="236.16" from="422314193#0" to="36854835#0" departLane="best" departSpeed="max" departPos="random"/>
    <trip id="165" depart="237.60" from="740767166" to="421403882" departLane="best" departSpeed="max" departPos="random"/>
    <trip id="166" depart="239.04" from="722128754" to="-583846252#1" departLane="best" departSpeed="max" departPos="random"/>
    <trip id="167" depart="240.48" from="731152429" to="1316020514#0" departLane="best" departSpeed="max" departPos="random"/>
    <trip id="168" depart="241.92" from="729019791" to="163871514" departLane="best" departSpeed="max" departPos="random"/>
    <trip id="169" depart="243.36" from="-579349397" to="36866347" departLane="best" departSpeed="max" departPos="random"/>
    <trip id="170" depart="244.80" from="423504337#0" to="203821741" departLane="best" departSpeed="max" departPos="random"/>
    <trip id="171" depart="246.24" from="421651453#1" to="420659189" departLane="best" departSpeed="max" departPos="random"/>
    <trip id="172" depart="247.68" from="32511963" to="421651413#1" departLane="best" departSpeed="max" departPos="random"/>
    <trip id="173" depart="249.12" from="157186438#1" to="422535971" departLane="best" departSpeed="max" departPos="random"/>
    <trip id="174" depart="250.56" from="-1117235904" to="637304500" departLane="best" departSpeed="max" departPos="random"/>
    <trip id="175" depart="252.00" from="421418720#1" to="422810976" departLane="best" departSpeed="max" departPos="random"/>
    <trip id="176" depart="253.44" from="511658929" to="422517484#1" departLane="best" departSpeed="max" departPos="random"/>
    <trip id="177" depart="254.88" from="203821735" to="583606361#0" departLane="best" departSpeed="max" departPos="random"/>
    <trip id="178" depart="256.32" from="422867217" to="186242127" departLane="best" departSpeed="max" departPos="random"/>
    <trip id="179" depart="257.76" from="202733845#0-AddedOffRampEdge" to="36861401" departLane="best" departSpeed="max" departPos="random"/>
    <trip id="180" depart="259.20" from="36854710#1" to="186242121#0" departLane="best" departSpeed="max" departPos="random"/>
    <trip id="181" depart="260.64" from="1055797072" to="36862454" departLane="best" departSpeed="max" departPos="random"/>
    <trip id="182" depart="262.08" from="722128755" to="422517494" departLane="best" departSpeed="max" departPos="random"/>
    <trip id="183" depart="263.52" from="590834962#0" to="421854313#0" departLane="best" departSpeed="max" departPos="random"/>
    <trip id="184" depart="264.96" from="186242123" to="421418764#1" departLane="best" departSpeed="max" departPos="random"/>
    <trip id="185" depart="266.40" from="-1111904646#1" to="174268773" departLane="best" departSpeed="max" departPos="random"/>
    <trip id="186" depart="267.84" from="36862455#1" to="421651418#1" departLane="best" departSpeed="max" departPos="random"/>
    <trip id="187" depart="269.28" from="422488780#1" to="38556532" departLane="best" departSpeed="max" departPos="random"/>
    <trip id="188" depart="270.72" from="36866383" to="1320388073#1" departLane="best" departSpeed="max" departPos="random"/>
    <trip id="189" depart="272.16" from="38557146" to="590551560" departLane="best" departSpeed="max" departPos="random"/>
    <trip id="190" depart="273.60" from="526279652" to="127846385#0" departLane="best" departSpeed="max" departPos="random"/>
    <trip id="191" depart="275.04" from="-421854343#1" to="421387135" departLane="best" departSpeed="max" departPos="random"/>
    <trip id="192" depart="276.48" from="421881775#1" to="214724761#1" departLane="best" departSpeed="max" departPos="random"/>
    <trip id="193" depart="277.92" from="579002694#1-AddedOffRampEdge" to="498910276" departLane="best" departSpeed="max" departPos="random"/>
    <trip id="194" depart="279.36" from="422517494" to="1443919176" departLane="best" departSpeed="max" departPos="random"/>
    <trip id="195" depart="280.80" from="1319808593#0" to="-186242127" departLane="best" departSpeed="max" departPos="random"/>
    <trip id="196" depart="282.24" from="156830663#1" to="38704375" departLane="best" departSpeed="max" departPos="random"/>
    <trip id="197" depart="283.68" from="583794924" to="-4071555" departLane="best" departSpeed="max" departPos="random"/>
    <trip id="198" depart="285.12" from="36861848" to="421854342" departLane="best" departSpeed="max" departPos="random"/>
    <trip id="199" depart="286.56" from="1319808590" to="422535912" departLane="best" departSpeed="max" departPos="random"/>
    <trip id="200" depart="288.00" from="417864005" to="157186425#1" departLane="best" departSpeed="max" departPos="random"/>
    <trip id="201" depart="289.44" from="422488788" to="-1371385737" departLane="best" departSpeed="max" departPos="random"/>
    <trip id="202" depart="290.88" from="512600113" to="515426194#0" departLane="best" departSpeed="max" departPos="random"/>
    <trip id="203" depart="292.32" from="-579349392" to="36862455#1" departLane="best" departSpeed="max" departPos="random"/>
    <trip id="204" depart="293.76" from="127846385#1" to="728044208#0" departLane="best" departSpeed="max" departPos="random"/>
    <trip id="205" depart="295.20" from="421387191#3" to="-36860979" departLane="best" departSpeed="max" departPos="random"/>
    <trip id="206" depart="296.64" from="157186425#0" to="583606361#0" departLane="best" departSpeed="max" departPos="random"/>
    <trip id="207" depart="298.08" from="381025449" to="550649029" departLane="best" departSpeed="max" departPos="random"/>
    <trip id="208" depart="299.52" from="422517488#0" to="741749028#0-AddedOffRampEdge" departLane="best" departSpeed="max" departPos="random"/>
    <trip id="209" depart="300.96" from="421651440" to="722469726" departLane="best" departSpeed="max" departPos="random"/>
    <trip id="210" depart="302.40" from="589964063#0" to="421693911#0" departLane="best" departSpeed="max" departPos="random"/>
    <trip id="211" depart="303.84" from="422867217" to="420357975" departLane="best" departSpeed="max" departPos="random"/>
    <trip id="212" depart="305.28" from="579856805" to="421418764#1" departLane="best" departSpeed="max" departPos="random"/>
    <trip id="213" depart="306.72" from="590551560" to="460573757#0" departLane="best" departSpeed="max" departPos="random"/>
    <trip id="214" depart="308.16" from="38557156#1" to="157308222#0-AddedOnRampEdge" departLane="best" departSpeed="max" departPos="random"/>
    <trip id="215" depart="309.60" from="157186416#1" to="421881775#1-AddedOffRampEdge" departLane="best" departSpeed="max" departPos="random"/>
    <trip id="216" depart="311.04" from="516539037" to="421387191#3" departLane="best" departSpeed="max" departPos="random"/>
    <trip id="217" depart="312.48" from="421854342" to="174059232#0" departLane="best" departSpeed="max" departPos="random"/>
    <trip id="218" depart="313.92" from="-421569495" to="174268652" departLane="best" departSpeed="max" departPos="random"/>
    <trip id="219" depart="315.36" from="163871518" to="203821781" departLane="best" departSpeed="max" departPos="random"/>
    <trip id="220" depart="316.80" from="421418720#1-AddedOffRampEdge" to="1111870615" departLane="best" departSpeed="max" departPos="random"/>
    <trip id="221" depart="318.24" from="1443919177#0" to="422535904#1" departLane="best" departSpeed="max" departPos="random"/>
    <trip id="222" depart="319.68" from="422539937#1-AddedOffRampEdge" to="-38557144#1" departLane="best" departSpeed="max" departPos="random"/>
    <trip id="223" depart="321.12" from="36854835#0" to="421418720#1-AddedOffRampEdge" departLane="best" departSpeed="max" departPos="random"/>
    <trip id="224" depart="322.56" from="36861848" to="1320388071#1" departLane="best" departSpeed="max" departPos="random"/>
    <trip id="225" depart="324.00" from="36862099" to="590834962#0" departLane="best" departSpeed="max" departPos="random"/>
    <trip id="226" depart="325.44" from="421651428#0-AddedOffRampEdge" to="422535904#2" departLane="best" departSpeed="max" departPos="random"/>
    <trip id="227" depart="326.88" from="583812532" to="514402463" departLane="best" departSpeed="max" departPos="random"/>
    <trip id="228" depart="328.32" from="315929404" to="-1371385737" departLane="best" departSpeed="max" departPos="random"/>